Version 4
SHEET 1 2152 1236
WIRE 128 32 -112 32
WIRE 912 32 128 32
WIRE 128 112 128 32
WIRE 176 112 128 112
WIRE 176 144 80 144
WIRE 912 160 912 32
WIRE -352 176 -352 144
WIRE 176 176 -352 176
WIRE 352 176 304 176
WIRE 736 176 352 176
WIRE -112 208 -112 32
WIRE 176 208 -112 208
WIRE 592 208 304 208
WIRE -352 240 -352 176
WIRE 592 304 592 208
WIRE 784 304 592 304
WIRE 912 304 912 240
WIRE 912 304 784 304
WIRE 784 336 784 304
WIRE -352 416 -352 320
WIRE 80 576 80 144
WIRE 352 576 352 176
WIRE 352 576 80 576
FLAG 784 336 0
FLAG -352 416 0
SYMBOL voltage 912 144 R0
WINDOW 123 0 0 Left 0
WINDOW 39 0 0 Left 0
SYMATTR InstName V1
SYMATTR Value 5
SYMBOL opamp_k_niioka_20200903 240 176 R0
SYMATTR InstName X1
SYMBOL voltage -352 224 R0
WINDOW 123 24 124 Left 2
WINDOW 39 0 0 Left 0
SYMATTR Value2 AC 1 0
SYMATTR InstName V2
SYMATTR Value 2.5
TEXT 920 872 Left 2 !.include "./models/OR1_mos"
TEXT -688 808 Left 2 !.ac dec 100 1 1g
