Version 4
SHEET 1 880 1016
WIRE -224 208 -528 208
WIRE -128 208 -224 208
WIRE 80 208 -128 208
WIRE 224 208 80 208
WIRE 368 208 224 208
WIRE 448 208 368 208
WIRE -128 256 -128 208
WIRE 80 256 80 208
WIRE -224 304 -224 208
WIRE -128 304 -224 304
WIRE -16 304 -64 304
WIRE 16 304 -16 304
WIRE 224 304 224 208
WIRE 224 304 80 304
WIRE 368 320 368 208
WIRE -128 368 -128 352
WIRE -16 368 -16 304
WIRE -16 368 -128 368
WIRE 80 368 80 352
WIRE 304 368 80 368
WIRE 448 368 448 208
WIRE 448 368 368 368
WIRE 176 400 -384 400
WIRE -128 416 -128 368
WIRE -80 416 -128 416
WIRE -176 432 -384 432
WIRE 80 432 80 368
WIRE 80 432 32 432
WIRE -80 464 -80 416
WIRE -64 464 -80 464
WIRE 32 464 32 432
WIRE 32 464 0 464
WIRE -176 512 -176 432
WIRE -144 512 -176 512
WIRE -64 512 -80 512
WIRE 32 512 -64 512
WIRE 176 512 176 400
WIRE 176 512 96 512
WIRE -576 544 -672 544
WIRE -352 544 -480 544
WIRE 368 544 368 416
WIRE 672 544 368 544
WIRE 368 560 368 544
WIRE 384 560 368 560
WIRE -352 608 -352 544
WIRE -272 608 -352 608
WIRE -64 608 -64 512
WIRE 144 608 -64 608
WIRE 384 624 384 560
WIRE -352 640 -352 608
WIRE 320 672 288 672
WIRE 416 672 384 672
WIRE -352 688 -432 688
WIRE -272 688 -272 608
WIRE -272 688 -288 688
WIRE -80 688 -80 560
WIRE -16 688 -80 688
WIRE 32 688 32 560
WIRE 32 688 -16 688
WIRE 288 720 288 672
WIRE 288 720 -128 720
WIRE -16 736 -16 688
WIRE -272 784 -272 688
WIRE -128 784 -128 720
WIRE -128 784 -272 784
WIRE -80 784 -128 784
WIRE 112 784 -16 784
WIRE -432 880 -432 688
WIRE -432 880 -512 880
WIRE -352 880 -352 736
WIRE -352 880 -432 880
WIRE -16 880 -16 832
WIRE -16 880 -352 880
WIRE 112 880 112 784
WIRE 112 880 -16 880
WIRE 144 880 144 608
WIRE 144 880 112 880
WIRE 384 880 384 720
WIRE 384 880 144 880
WIRE 416 880 416 672
WIRE 416 880 384 880
WIRE 448 880 416 880
WIRE 384 896 384 880
FLAG -384 432 in-
IOPIN -384 432 In
FLAG -384 400 in+
IOPIN -384 400 In
FLAG -528 208 Vdd
IOPIN -528 208 In
FLAG 672 544 out
IOPIN 672 544 Out
FLAG -672 544 Vb
IOPIN -672 544 In
FLAG -512 880 GND
IOPIN -512 880 In
SYMBOL OR1LIB\\PMOS 16 304 R0
WINDOW 0 48 32 Left 5
SYMATTR InstName M1
SYMATTR Value2 l=3u w=100u
SYMBOL OR1LIB\\PMOS -64 304 M0
WINDOW 0 48 32 Left 5
SYMATTR InstName M2
SYMATTR Value2 l=3u w=100u
SYMBOL OR1LIB\\NMOS -144 512 R0
WINDOW 0 48 32 Left 4
SYMATTR InstName M4
SYMATTR Value2 l=1u w=400u
SYMBOL OR1LIB\\NMOS 96 512 M0
WINDOW 0 48 32 Left 4
SYMATTR InstName M5
SYMATTR Value2 l=1u w=400u
SYMBOL OR1LIB\\NMOS -80 784 R0
WINDOW 0 48 32 Left 5
SYMATTR InstName M6
SYMATTR Value2 l=2.5u w=120u
SYMBOL OR1LIB\\NMOS -288 688 M0
WINDOW 0 48 32 Left 5
SYMATTR InstName M7
SYMATTR Value2 l=2.5u w=10u
SYMBOL OR1LIB\\NMOS 320 672 R0
WINDOW 0 48 32 Left 5
SYMATTR InstName M8
SYMATTR Value2 l=1u w=120u
SYMBOL OR1LIB\\PMOS 304 368 R0
WINDOW 0 48 32 Left 5
SYMATTR InstName M3
SYMATTR Value2 l=1u w=240u
SYMBOL OR1LIB\\R_POLY -480 544 R90
WINDOW 0 -16 48 VBottom 2
WINDOW 3 16 48 VTop 2
SYMATTR InstName R1
SYMATTR Value 40k
SYMBOL cap 0 448 R90
WINDOW 0 0 32 VBottom 2
WINDOW 3 32 32 VTop 2
SYMATTR InstName C2
SYMATTR Value 3p
TEXT 280 1000 Left 2 !.include "./models/OR1_mos"
TEXT -352 976 Left 2 !.tran 10m
